# ASR1SB2_0.tcl --
#
#        The main .tcl file for OpenSees.
#
# Created on: 5/26/2018 3:24:55 AM
#
# Created by: 
#       OpenSeesPL (Edu Version 2.7.3.10311)
# OpenSees Analysis of 3D Lateral Pile-Ground Interaction
#      Copyright (c) 2017 All Rights Reserved.
#

wipe

set parallel 0; # 0 -- sequential run (e.g., on a PC)
                # 1 -- parallel run

logFile ASR1SB2_0.log

if { $parallel == 0 } {
    puts "Analysis started at: [clock format [clock seconds]]\n"
    # clock format [clock seconds] -format "%T"
    set startT [clock seconds]

    set solver "UmfPack"
    set solver2 "UmfPack"
} else {
    set solver "UmfPack"
    set solver2 "Mumps -ICNTL14 50"
}

set constraints "Penalty 1e18 1e18"
set test "NormDispIncr  1.000000e-004 100 2"
set algorithm "KrylovNewton"
set integrator "Newmark"
#set numberer "Plain"
set numberer "RCM"
set outfmt "-file"
# Unit system in this file: SI

# define UNITS ---------------------------------------------
set g 9.81; 	# gravitational acceleration (also good for US/EN units since SI is actually used)
set nonlinear 1
set gamma 0.5
# Rayleigh Damping
set am 2.508260e-002
set ak 1.270700e-004
set numSteps 3000
set compdT 0.05
# remove any existing old files so post-processing would not read wrong files
file delete ASR1SB2_0.tim
file delete ASR1SB2_0.dsp
file delete ASR1SB2_0.frq
file delete traceStop.txt
model basic -ndm 3 -ndf 4
node      1   0.000000e+000   0.000000e+000  -3.000000e+001
node      2   1.000000e+000   0.000000e+000  -3.000000e+001
node      3   1.000000e+000   1.000000e+000  -3.000000e+001
node      4   0.000000e+000   1.000000e+000  -3.000000e+001
node      5   0.000000e+000   0.000000e+000  -2.850000e+001
node      6   1.000000e+000   0.000000e+000  -2.850000e+001
node      7   1.000000e+000   1.000000e+000  -2.850000e+001
node      8   0.000000e+000   1.000000e+000  -2.850000e+001
node      9   0.000000e+000   0.000000e+000  -2.700000e+001
node     10   1.000000e+000   0.000000e+000  -2.700000e+001
node     11   1.000000e+000   1.000000e+000  -2.700000e+001
node     12   0.000000e+000   1.000000e+000  -2.700000e+001
node     13   0.000000e+000   0.000000e+000  -2.550000e+001
node     14   1.000000e+000   0.000000e+000  -2.550000e+001
node     15   1.000000e+000   1.000000e+000  -2.550000e+001
node     16   0.000000e+000   1.000000e+000  -2.550000e+001
node     17   0.000000e+000   0.000000e+000  -2.400000e+001
node     18   1.000000e+000   0.000000e+000  -2.400000e+001
node     19   1.000000e+000   1.000000e+000  -2.400000e+001
node     20   0.000000e+000   1.000000e+000  -2.400000e+001
# ... 200 like lines cut

fixZ [expr -3.000000e+001] 1 1 1 0 -tol 1e-4
fix    169 0 0 0 1
fix    170 0 0 0 1
fix    171 0 0 0 1
fix    172 0 0 0 1
fix    173 0 0 0 1
fix    174 0 0 0 1
fix    175 0 0 0 1
fix    176 0 0 0 1
fix    177 0 0 0 1
fix    178 0 0 0 1
fix    179 0 0 0 1
fix    180 0 0 0 1
fix    181 0 0 0 1
fix    182 0 0 0 1
fix    183 0 0 0 1
fix    184 0 0 0 1
fix    185 0 0 0 1
fix    186 0 0 0 1
fix    187 0 0 0 1
fix    188 0 0 0 1
# ... 32 like lines cut




equalDOF      5      6     1    2    3
equalDOF      5      7     1    2    3
equalDOF      5      8     1    2    3
equalDOF      9     10     1    2    3
equalDOF      9     11     1    2    3
equalDOF      9     12     1    2    3
equalDOF     13     14     1    2    3
equalDOF     13     15     1    2    3
equalDOF     13     16     1    2    3
equalDOF     17     18     1    2    3
equalDOF     17     19     1    2    3
equalDOF     17     20     1    2    3
equalDOF     21     22     1    2    3
equalDOF     21     23     1    2    3
equalDOF     21     24     1    2    3
equalDOF     25     26     1    2    3
equalDOF     25     27     1    2    3
equalDOF     25     28     1    2    3
equalDOF     29     30     1    2    3
equalDOF     29     31     1    2    3
# ... 142 like lines cut
set numys 20
# Loose soil or very loose soil
# nDMaterial PressureDependMultiYield 1 3  1.7 5.5000e+04 1.5000e+05 29.0 0.1 80 0.5\
# 					                 29.0 0.21 0.0 0.0   10.0 0.02 1.0 $numys
# Medium soil
# nDMaterial PressureDependMultiYield 1 3  1.9 7.500e+04 2.0e+05 33.0 0.1 80 0.5\
# 					                 27.0 0.07 0.4 2.0    10.0 0.01 1.0 $numys
# Medium-dense soil
# nDMaterial PressureDependMultiYield 1 3  2.0 1.0e+05 3.e+05 37.0 0.1 80 0.5\
#					                 27.0 0.05 0.6 3.0    5.0 0.003 1 $numys
# Dense soil
# nDMaterial PressureDependMultiYield 1 3  2.1 1.300e+05 3.9000e+05 40.0 0.1 80 0.5\
# 					                 27.0 0.03 0.8 5.0    0.0 0.0 0.0 $numys
# Soft clay
# nDMaterial PressureIndependMultiYield 1 3 1.3 1.3e+4 6.5e+04 18.0 0.1
# Medium clay
# nDMaterial PressureIndependMultiYield 1 3 1.5 6e+4 3e+5 37.0 0.1
# Stiff clay
# nDMaterial PressureIndependMultiYield 1 3 1.8 1.5e+5 7.5e+5 75.0 0.1
# U Sand2A: PressureDependMultiYield02
nDMaterial PressureDependMultiYield02  1 3 1.900000e+000 2.495400e+004 5.614600e+004 2.900000e+001 1.000000e-001 1.010000e+002 5.000000e-001\
					                 2.900000e+001 4.500000e-002 1.500000e-001 6.000000e-002  1.500000e-001\
                                20  5.000000e+000 3.000000e+000 1.0 0.0 0.6 0.9 0.02 0.7 101 1.000000e-001

# U Sand2A: PressureDependMultiYield02
nDMaterial PressureDependMultiYield02  2 3 1.900000e+000 3.158300e+004 7.106100e+004 3.400000e+001 1.000000e-001 1.010000e+002 5.000000e-001\
					                 2.900000e+001 4.500000e-002 1.500000e-001 6.000000e-002  1.500000e-001\
                                20  5.000000e+000 3.000000e+000 1.0 0.0 0.6 0.9 0.02 0.7 101 1.000000e-001

# U Sand2A: PressureDependMultiYield02
nDMaterial PressureDependMultiYield02  3 3 1.900000e+000 3.643500e+004 8.197800e+004 3.400000e+001 1.000000e-001 1.010000e+002 5.000000e-001\
					                 2.900000e+001 4.500000e-002 1.500000e-001 6.000000e-002  1.500000e-001\
                                20  5.000000e+000 3.000000e+000 1.0 0.0 0.6 0.9 0.02 0.7 101 1.000000e-001

# U Sand2A: PressureDependMultiYield02
nDMaterial PressureDependMultiYield02  4 3 1.900000e+000 3.214800e+004 7.233300e+004 3.600000e+001 1.000000e-001 1.010000e+002 5.000000e-001\
					                 2.900000e+001 4.500000e-002 1.500000e-001 6.000000e-002  1.500000e-001\
                                20  5.000000e+000 3.000000e+000 1.0 0.0 0.6 0.9 0.02 0.7 101 1.000000e-001

# U Sand2A: PressureDependMultiYield02
nDMaterial PressureDependMultiYield02  5 3 1.900000e+000 4.163400e+004 9.367400e+004 3.500000e+001 1.000000e-001 1.010000e+002 5.000000e-001\
					                 2.900000e+001 4.500000e-002 1.500000e-001 6.000000e-002  1.500000e-001\
                                20  5.000000e+000 3.000000e+000 1.0 0.0 0.6 0.9 0.02 0.7 101 1.000000e-001

# U Sand2A: PressureDependMultiYield02
nDMaterial PressureDependMultiYield02  6 3 1.900000e+000 1.171460e+005 2.635780e+005 2.900000e+001 1.000000e-001 1.010000e+002 5.000000e-001\
					                 2.900000e+001 4.500000e-002 1.500000e-001 6.000000e-002  1.500000e-001\
                                20  5.000000e+000 3.000000e+000 1.0 0.0 0.6 0.9 0.02 0.7 101 1.000000e-001

# U Sand2A: PressureDependMultiYield02
nDMaterial PressureDependMultiYield02  7 3 1.900000e+000 1.500000e+005 3.500000e+005 3.500000e+001 7.000000e-002 1.010000e+002 5.000000e-001\
					                 3.500000e+001 4.500000e-002 1.500000e-001 6.000000e-002  1.500000e-001\
                                20  5.000000e+000 3.000000e+000 1.0 0.0 0.6 0.9 0.02 0.7 101 1.000000e-001

set gravX 0.0
set gravZ [expr -1*9.81]
set gravY 0.0
set press 0.0

set bulk 2200000
set fmass 1

element SSPbrickUP       1      1      2      3      4      5      6      7      8     7 $bulk $fmass [expr 6.600000e-005/$g/$fmass] [expr 6.600000e-005/$g/$fmass] [expr 6.600000e-005/$g/$fmass] 0.7 6.0e-5 $gravX $gravY $gravZ
element SSPbrickUP       2      5      6      7      8      9     10     11     12     7 $bulk $fmass [expr 6.600000e-005/$g/$fmass] [expr 6.600000e-005/$g/$fmass] [expr 6.600000e-005/$g/$fmass] 0.7 6.0e-5 $gravX $gravY $gravZ
element SSPbrickUP       3      9     10     11     12     13     14     15     16     7 $bulk $fmass [expr 6.600000e-005/$g/$fmass] [expr 6.600000e-005/$g/$fmass] [expr 6.600000e-005/$g/$fmass] 0.7 6.0e-5 $gravX $gravY $gravZ
element SSPbrickUP       4     13     14     15     16     17     18     19     20     7 $bulk $fmass [expr 6.600000e-005/$g/$fmass] [expr 6.600000e-005/$g/$fmass] [expr 6.600000e-005/$g/$fmass] 0.7 6.0e-5 $gravX $gravY $gravZ
element SSPbrickUP       5     17     18     19     20     21     22     23     24     7 $bulk $fmass [expr 6.600000e-005/$g/$fmass] [expr 6.600000e-005/$g/$fmass] [expr 6.600000e-005/$g/$fmass] 0.7 6.0e-5 $gravX $gravY $gravZ
element SSPbrickUP       6     21     22     23     24     25     26     27     28     7 $bulk $fmass [expr 6.600000e-005/$g/$fmass] [expr 6.600000e-005/$g/$fmass] [expr 6.600000e-005/$g/$fmass] 0.7 6.0e-5 $gravX $gravY $gravZ
element SSPbrickUP       7     25     26     27     28     29     30     31     32     7 $bulk $fmass [expr 6.600000e-005/$g/$fmass] [expr 6.600000e-005/$g/$fmass] [expr 6.600000e-005/$g/$fmass] 0.7 6.0e-5 $gravX $gravY $gravZ
element SSPbrickUP       8     29     30     31     32     33     34     35     36     7 $bulk $fmass [expr 6.600000e-005/$g/$fmass] [expr 6.600000e-005/$g/$fmass] [expr 6.600000e-005/$g/$fmass] 0.7 6.0e-5 $gravX $gravY $gravZ
element SSPbrickUP       9     33     34     35     36     37     38     39     40     7 $bulk $fmass [expr 6.600000e-005/$g/$fmass] [expr 6.600000e-005/$g/$fmass] [expr 6.600000e-005/$g/$fmass] 0.7 6.0e-5 $gravX $gravY $gravZ
element SSPbrickUP      10     37     38     39     40     41     42     43     44     7 $bulk $fmass [expr 6.600000e-005/$g/$fmass] [expr 6.600000e-005/$g/$fmass] [expr 6.600000e-005/$g/$fmass] 0.7 6.0e-5 $gravX $gravY $gravZ
element SSPbrickUP      11     41     42     43     44     45     46     47     48     6 $bulk $fmass [expr 6.600000e-005/$g/$fmass] [expr 6.600000e-005/$g/$fmass] [expr 6.600000e-005/$g/$fmass] 0.7 6.0e-5 $gravX $gravY $gravZ
element SSPbrickUP      12     45     46     47     48     49     50     51     52     6 $bulk $fmass [expr 6.600000e-005/$g/$fmass] [expr 6.600000e-005/$g/$fmass] [expr 6.600000e-005/$g/$fmass] 0.7 6.0e-5 $gravX $gravY $gravZ
element SSPbrickUP      13     49     50     51     52     53     54     55     56     6 $bulk $fmass [expr 6.600000e-005/$g/$fmass] [expr 6.600000e-005/$g/$fmass] [expr 6.600000e-005/$g/$fmass] 0.7 6.0e-5 $gravX $gravY $gravZ
element SSPbrickUP      14     53     54     55     56     57     58     59     60     6 $bulk $fmass [expr 6.600000e-005/$g/$fmass] [expr 6.600000e-005/$g/$fmass] [expr 6.600000e-005/$g/$fmass] 0.7 6.0e-5 $gravX $gravY $gravZ
element SSPbrickUP      15     57     58     59     60     61     62     63     64     6 $bulk $fmass [expr 6.600000e-005/$g/$fmass] [expr 6.600000e-005/$g/$fmass] [expr 6.600000e-005/$g/$fmass] 0.7 6.0e-5 $gravX $gravY $gravZ
element SSPbrickUP      16     61     62     63     64     65     66     67     68     6 $bulk $fmass [expr 6.600000e-005/$g/$fmass] [expr 6.600000e-005/$g/$fmass] [expr 6.600000e-005/$g/$fmass] 0.7 6.0e-5 $gravX $gravY $gravZ
element SSPbrickUP      17     65     66     67     68     69     70     71     72     6 $bulk $fmass [expr 6.600000e-005/$g/$fmass] [expr 6.600000e-005/$g/$fmass] [expr 6.600000e-005/$g/$fmass] 0.7 6.0e-5 $gravX $gravY $gravZ
element SSPbrickUP      18     69     70     71     72     73     74     75     76     6 $bulk $fmass [expr 6.600000e-005/$g/$fmass] [expr 6.600000e-005/$g/$fmass] [expr 6.600000e-005/$g/$fmass] 0.7 6.0e-5 $gravX $gravY $gravZ
element SSPbrickUP      19     73     74     75     76     77     78     79     80     6 $bulk $fmass [expr 6.600000e-005/$g/$fmass] [expr 6.600000e-005/$g/$fmass] [expr 6.600000e-005/$g/$fmass] 0.7 6.0e-5 $gravX $gravY $gravZ
element SSPbrickUP      20     77     78     79     80     81     82     83     84     6 $bulk $fmass [expr 6.600000e-005/$g/$fmass] [expr 6.600000e-005/$g/$fmass] [expr 6.600000e-005/$g/$fmass] 0.7 6.0e-5 $gravX $gravY $gravZ
# ... 34 like lines cut

updateMaterials -material 1 shearModulus [expr 2.495400e+004]
updateMaterials -material 1 bulkModulus [expr 5.614600e+004]
updateMaterials -material 2 shearModulus [expr 3.158300e+004]
updateMaterials -material 2 bulkModulus [expr 7.106100e+004]
updateMaterials -material 3 shearModulus [expr 3.643500e+004]
updateMaterials -material 3 bulkModulus [expr 8.197800e+004]
updateMaterials -material 4 shearModulus [expr 3.214800e+004]
updateMaterials -material 4 bulkModulus [expr 7.233300e+004]
updateMaterials -material 5 shearModulus [expr 4.163400e+004]
updateMaterials -material 5 bulkModulus [expr 9.367400e+004]
updateMaterials -material 6 shearModulus [expr 1.171460e+005]
updateMaterials -material 6 bulkModulus [expr 2.635780e+005]
updateMaterials -material 7 shearModulus [expr 1.500000e+005]
updateMaterials -material 7 bulkModulus [expr 3.500000e+005]

set numnp 220
set SnodeList {}
for {set i 1} {$i <= $numnp} {incr i 1} {
lappend SnodeList [expr $i]
}

set FnodeList {}
for {set i 1} {$i <= $numnp} {incr i 1} {
lappend FnodeList [expr $i]
}

set numel 54
set EnodeList {}
for {set i 1} {$i <= $numel} {incr i 1} {
lappend EnodeList [expr $i]
}


#create trace file for progress bar display
set tracefnameTot "traceTot.txt"
set tracefnameCurr "traceCurr.txt"


########################
# Gravity application  #
########################

# elastic behavior ---------------------------------------------- 1st run
numberer $numberer
eval "constraints $constraints"
eval "system $solver"
eval "test $test"
eval "algorithm $algorithm"
#integrator LoadControl 1 1 1 1
#analysis Static 
integrator Newmark 1.5  1.
analysis Transient 
eval "recorder Node $outfmt ASR1SB2_0.dg0 -time -node $SnodeList -dof 1 2 3 disp"
eval "recorder Node $outfmt ASR1SB2_0.pg0 -time -node $FnodeList -dof 4 vel"
eval "recorder Element $outfmt ASR1SB2_0.s1g0 -element $EnodeList  -time  stress"
eval "recorder Element $outfmt ASR1SB2_0.str1g0 -element $EnodeList  -time  strain"

set fileId [open $tracefnameTot "w"]
puts $fileId "1 5"
close $fileId

set fileId [open $tracefnameCurr "w"]
puts $fileId 0
close $fileId

set ok [analyze 5  5.00e+004]
if {$ok != 0} { return $ok }
puts "First run done.
"

# switch material stage from elastic (gravity) to plastic ------- 2nd run
updateMaterialStage -material 1 -stage $nonlinear
updateMaterialStage -material 2 -stage $nonlinear
updateMaterialStage -material 3 -stage $nonlinear
updateMaterialStage -material 4 -stage $nonlinear
updateMaterialStage -material 5 -stage $nonlinear
updateMaterialStage -material 6 -stage $nonlinear
updateMaterialStage -material 7 -stage $nonlinear

set fileId [open $tracefnameTot "w"]
puts $fileId "2 3"
close $fileId

set fileId [open $tracefnameCurr "w"]
puts $fileId 0
close $fileId

set ok [analyze 3  5.00e+004]
if {$ok != 0} { return $ok }
puts "Second run done.
"



# Flexiable base -- Dashpot

# Remove vertical fixity
# corner nodes
remove sp 1 1
remove sp 1 2
remove sp 1 3
remove sp 2 1
remove sp 2 2
remove sp 2 3
remove sp 3 1
remove sp 3 2
remove sp 3 3
remove sp 4 1
remove sp 4 2
remove sp 4 3
# Tie all the base nodes
equalDOF      1      2     1 2 3
equalDOF      1      3     1 2 3
equalDOF      1      4     1 2 3

model basic -ndm 3 -ndf 3
node    231   0.000000e+000   0.000000e+000  -3.000000e+001
node    232   1.000000e+000   0.000000e+000  -3.000000e+001
node    233   1.000000e+000   1.000000e+000  -3.000000e+001
node    234   0.000000e+000   1.000000e+000  -3.000000e+001
node    235   0.000000e+000   0.000000e+000  -3.000000e+001
node    236   1.000000e+000   0.000000e+000  -3.000000e+001
node    237   1.000000e+000   1.000000e+000  -3.000000e+001
node    238   0.000000e+000   1.000000e+000  -3.000000e+001
# fix base nodes (top level)
fix    235 0 1 1
fix    236 0 1 1
fix    237 0 1 1
fix    238 0 1 1
# fix base nodes
fix    231 1 1 1
fix    232 1 1 1
fix    233 1 1 1
fix    234 1 1 1
equalDOF    235      1 1 2 3
equalDOF    236      2 1 2 3
equalDOF    237      3 1 2 3
equalDOF    238      4 1 2 3
set rockDen 1.800000e+000
set rockVs 4.000000e+002
set rockPoisson 0.4

# Compressive wave (p-wave)
set rockG [expr $rockVs*$rockVs*$rockDen]
set rockM [expr 2*$rockG*(1-$rockPoisson)/(1-2*$rockPoisson)]
set rockVp [expr pow($rockM/$rockDen,0.5)]


# Horizontal
uniaxialMaterial Viscous  2001 [expr 2.500000e-001*$rockDen*$rockVs]  1.
uniaxialMaterial Viscous  2002 [expr 2.500000e-001*$rockDen*$rockVs]  1.
uniaxialMaterial Viscous  2003 [expr 2.500000e-001*$rockDen*$rockVs]  1.
uniaxialMaterial Viscous  2004 [expr 2.500000e-001*$rockDen*$rockVs]  1.
element zeroLength     55    231    235  -mat 2001   -dir 1  
element zeroLength     56    232    236  -mat 2002   -dir 1  
element zeroLength     57    233    237  -mat 2003   -dir 1  
element zeroLength     58    234    238  -mat 2004   -dir 1  
wipeAnalysis

#############################
# Loading (Pushover, or base shaking)(4rd run) # 
#############################

# rezero time
wipeAnalysis
loadConst -time 0.0

model basic -ndm 3 -ndf 3
# load pattern for u-rock 
pattern Plain 300 "Series -fileTime acc_time.txt -filePath vel_value.txt" {
    load    235    [expr 2.500000e-001*$rockDen*$rockVs*1.000000e+000] 0.0 0.0
    load    236    [expr 2.500000e-001*$rockDen*$rockVs*1.000000e+000] 0.0 0.0
    load    237    [expr 2.500000e-001*$rockDen*$rockVs*1.000000e+000] 0.0 0.0
    load    238    [expr 2.500000e-001*$rockDen*$rockVs*1.000000e+000] 0.0 0.0
}

# output responses
remove recorders
eval "recorder Node $outfmt ASR1SB2_0.tim -time  -node 1 -dof 1 disp"
eval "recorder Node $outfmt ASR1SB2_0.dsp -time  -node $SnodeList -dof 1 2 3 disp"
eval "recorder Node $outfmt ASR1SB2_0.pwp -time  -node $FnodeList -dof 4 vel"
eval "recorder Node $outfmt ASR1SB2_0.acc -time  -node $SnodeList -dof 1 2 3 accel"
eval "recorder Element $outfmt ASR1SB2_0.sts1 -ele $EnodeList  -time   stress"
eval "recorder Element $outfmt ASR1SB2_0.str1 -ele $EnodeList  -time   strain"

# analysis options
numberer $numberer
eval "constraints $constraints"
eval "system $solver2"
eval "test $test"
eval "algorithm $algorithm"
#integrator LoadControl 1 1 1 1
#analysis Static
rayleigh $am 0.0 $ak 0.0
integrator Newmark $gamma  [expr pow($gamma+0.5, 2)/4]
analysis VariableTransient 

set fileId [open $tracefnameTot "w"]
puts $fileId "3 150"
close $fileId

set fileId [open $tracefnameCurr "w"]
puts $fileId "0"
close $fileId

# domain decomposition if not done yet (parallel run and NP > 1)
partition 0

set ok [analyze $numSteps $compdT [expr $compdT/100] $compdT  15]
if {$ok != 0} { return $ok }

if { $parallel == 0 } {
    set endT [clock seconds]
    set ElapsedTime [expr $endT-$startT]
    set ElapsedHours [expr int($ElapsedTime/3600.)]
    set ElapsedMins [expr int($ElapsedTime/60.-$ElapsedHours*60.)]
    set ElapsedSecs [expr int($ElapsedTime-$ElapsedHours*3600-$ElapsedMins*60.)]
    puts "
Analysis finished at: [clock format [clock seconds]]"
    puts "Execution time: $ElapsedHours hours and $ElapsedMins minutes and $ElapsedSecs seconds."
}
wipe; #need wipe to finish writing buffer to files
