#
#  _____ _______       _____                  _____                  _____      _             __               
# |  __ (_)  _  \  _  |  _  |                /  ___|                |_   _|    | |           / _|              
# | |  \/_| | | |_| |_| | | |_ __   ___ _ __ \ `--.  ___  ___  ___    | | _ __ | |_ ___ _ __| |_ __ _  ___ ___ 
# | | __| | | | |_   _| | | | '_ \ / _ \ '_ \ `--. \/ _ \/ _ \/ __|   | || '_ \| __/ _ \ '__|  _/ _` |/ __/ _ \
# | |_\ \ | |/ /  |_| \ \_/ / |_) |  __/ | | /\__/ /  __/  __/\__ \  _| || | | | ||  __/ |  | || (_| | (_|  __/
#  \____/_|___/        \___/| .__/ \___|_| |_\____/ \___|\___||___/  \___/_| |_|\__\___|_|  |_| \__,_|\___\___|
#                           | |                                                                                
#                           |_|                                                                                
#
# GiD + OpenSees Interface - An Integrated FEA Platform
# Copyright (C) 2016-2017
#
# Lab of R/C and Masonry Structures
# School of Civil Engineering, AUTh
#  
# Development team
#
# T. Kartalis-Kaounis, Civil Engineer AUTh
# V. Protopapadakis, Civil Engineer AUTh
# T. Papadopoulos, Civil Engineer AUTh
# 
# Project coordinator
#
# V.K. Papanikolaou, Assistant Professor AUTh
#
# This program is free software: you can redistribute it and/or modify
# it under the terms of the GNU General Public License as published by
# the Free Software Foundation, either version 3 of the License, or
# (at your option) any later version.
#
# This program is distributed in the hope that it will be useful,
# but WITHOUT ANY WARRANTY; without even the implied warranty of
# MERCHANTABILITY or FITNESS FOR A PARTICULAR PURPOSE.  See the
# GNU General Public License for more details.
#
# You should have received a copy of the GNU General Public License
# along with this program.  If not, see <http://www.gnu.org/licenses/>.

# --------------------------------------------------------------------------------------------------------------
#
# OPENSEES MODEL DATA FILE (Three dimensional / Six degrees of freedom)
#
# --------------------------------------------------------------------------------------------------------------

# Modeling environment (ndm = model dimensions, ndf = global degrees of freedom)

model BasicBuilder -ndm 3 -ndf 3

# --------------------------------------------------------------------------------------------------------------
# N O D E S
# --------------------------------------------------------------------------------------------------------------

# node $NodeTag $XCoord $Ycoord %Zcoord

node      1    0.000   10.000   11.000
node      2    0.000    9.000   11.000
node      3    1.000   10.000   11.000
node      4    0.000   10.000   10.000
node      5    0.000    9.000   10.000
node      6    1.000   10.000   10.000
node      7    1.000    9.000   11.000
node      8    1.000    9.000   10.000
node      9    0.000   10.000    9.000
node     10    0.000    8.000   11.000
node     11    2.000   10.000   11.000
node     12    2.000   10.000   10.000
node     13    2.000    9.000   11.000
node     14    0.000    8.000   10.000
node     15    0.000    9.000    9.000
node     16    1.000   10.000    9.000
node     17    1.000    8.000   11.000
node     18    1.000    9.000    9.000
node     19    2.000    9.000   10.000
node     20    1.000    8.000   10.000
# ... 2752 like lines cut

# --------------------------------------------------------------------------------------------------------------
# R E S T R A I N T S
# --------------------------------------------------------------------------------------------------------------

# fix $NodeTag x-transl y-transl z-transl x-rot y-rot z-rot 

fix      1   0   1   0   0   0   0
fix      2   1   0   0   0   0   0
fix      3   0   1   0   0   0   0
fix      4   0   1   0   0   0   0
fix      5   1   0   0   0   0   0
fix      6   0   1   0   0   0   0
fix      9   0   1   0   0   0   0
fix     10   1   0   0   0   0   0
fix     11   0   1   0   0   0   0
fix     12   0   1   0   0   0   0
fix     14   1   0   0   0   0   0
fix     15   1   0   0   0   0   0
fix     16   0   1   0   0   0   0
fix     22   0   1   0   0   0   0
fix     23   1   0   0   0   0   0
fix     25   1   0   0   0   0   0
fix     26   0   1   0   0   0   0
fix     27   0   1   0   0   0   0
fix     31   1   0   0   0   0   0
fix     32   1   0   0   0   0   0
# ... 871 like lines cut

# fix of unused DOFs for stdBrick nodes

fix   1360   0   0   0   1   1   1
fix   1379   0   0   0   1   1   1
fix   1422   0   0   0   1   1   1
fix   1460   0   0   0   1   1   1
fix   1522   0   0   0   1   1   1
fix   1589   0   0   0   1   1   1
fix   1674   0   0   0   1   1   1
fix   1754   0   0   0   1   1   1
fix   1845   0   0   0   1   1   1
fix   1931   0   0   0   1   1   1
fix   2031   0   0   0   1   1   1
fix   2134   0   0   0   1   1   1
fix   2233   0   0   0   1   1   1
fix   2344   0   0   0   1   1   1
fix   2453   0   0   0   1   1   1
fix   2563   0   0   0   1   1   1
fix   2648   0   0   0   1   1   1
fix   2712   0   0   0   1   1   1
fix   2751   0   0   0   1   1   1
fix   1210   0   0   0   1   1   1
# ... 1861 like lines cut

# --------------------------------------------------------------------------------------------------------------
# S T A N D A R D   B R I C K   E L E M E N T S
# --------------------------------------------------------------------------------------------------------------

# nDMaterial Definition

nDMaterial PressureIndependMultiYield 16 3 1.5 60000 300000 37 0.1 0 100 0 20
nDMaterial PressureIndependMultiYield 31 3 1.5 60000 300000 37 0.1 0 100 0 20
nDMaterial PressureIndependMultiYield 32 3 1.8 150000 750000 75 0.1 0 100 0 20

# stdBrick element definition: element stdBrick $eleTag $node1 $node2 $node3 $node4 $node5 $node6 $node7 $node8 $matTag <$b1 $b2 $b3>

element stdBrick      1   1360   1346   1497   1503   1491   1481   1611   1624    32    0.000    0.000    0.000
element stdBrick      2   1379   1360   1503   1523   1507   1491   1624   1634    32    0.000    0.000    0.000
element stdBrick      3   1422   1379   1523   1559   1542   1507   1634   1678    32    0.000    0.000    0.000
element stdBrick      4   1460   1422   1559   1596   1582   1542   1678   1713    32    0.000    0.000    0.000
element stdBrick      5   1522   1460   1596   1649   1635   1582   1713   1762    32    0.000    0.000    0.000
element stdBrick      6   1589   1522   1649   1722   1707   1635   1762   1813    32    0.000    0.000    0.000
element stdBrick      7   1674   1589   1722   1791   1772   1707   1813   1890    32    0.000    0.000    0.000
element stdBrick      8   1754   1674   1791   1866   1850   1772   1890   1956    32    0.000    0.000    0.000
element stdBrick      9   1845   1754   1866   1946   1933   1850   1956   2036    32    0.000    0.000    0.000
element stdBrick     10   1931   1845   1946   2034   2026   1933   2036   2107    32    0.000    0.000    0.000
element stdBrick     11   2031   1931   2034   2117   2106   2026   2107   2212    32    0.000    0.000    0.000
element stdBrick     12   2134   2031   2117   2221   2215   2106   2212   2295    32    0.000    0.000    0.000
element stdBrick     13   2233   2134   2221   2320   2307   2215   2295   2397    32    0.000    0.000    0.000
element stdBrick     14   2344   2233   2320   2420   2413   2307   2397   2493    32    0.000    0.000    0.000
element stdBrick     15   2453   2344   2420   2535   2523   2413   2493   2589    32    0.000    0.000    0.000
element stdBrick     16   2563   2453   2535   2620   2615   2523   2589   2664    32    0.000    0.000    0.000
element stdBrick     17   2648   2563   2620   2693   2689   2615   2664   2723    32    0.000    0.000    0.000
element stdBrick     18   2712   2648   2693   2741   2735   2689   2723   2754    32    0.000    0.000    0.000
element stdBrick     19   2751   2712   2741   2762   2760   2735   2754   2768    32    0.000    0.000    0.000
element stdBrick     20   2766   2751   2762   2771   2770   2760   2768   2772    32    0.000    0.000    0.000
# ... 2180 like lines cut

#set material to elastic for gravity loading
updateMaterialStage -material 16 -stage 0  
updateMaterialStage -material 31 -stage 0  
updateMaterialStage -material 32 -stage 0  

# --------------------------------------------------------------------------------------------------------------
# R E C O R D E R S
# --------------------------------------------------------------------------------------------------------------

recorder Element -file stdBrick_force.out -time -eleRange 1 2200 forces
recorder Element -file stdBrick_stress.out -time -eleRange 1 2200 stresses
recorder Element -file stdBrick_strain.out -time -eleRange 1 2200 strains
recorder Node -file Node_displacements.out -time -nodeRange 1 2772 -dof 1 2 3 4 5 6 disp
recorder Node -file Node_reactions.out -time -nodeRange 1 2772 -dof 1 2 3 4 5 6 reaction

logFile log.txt

# --------------------------------------------------------------------------------------------------------------

set time_start [clock seconds]
puts "\nAnalysis started  : [clock format $time_start -format %H:%M:%S]"
puts ""

# --------------------------------------------------------------------------------------------------------------
#
# I N T E R V A L   1
#
# --------------------------------------------------------------------------------------------------------------

puts "Interval 1"
puts ""

# Loads

pattern Plain 100 Linear {
}

# Perform eigenvalue analysis

set numModes 3

# Record eigenvectors

for { set k 1 } { $k <= $numModes } { incr k } {
  recorder Node -file [format "Mode_%i.out" $k] -nodeRange 1 2772 -dof 1 2 3 4 5 6 "eigen $k"
}

set lambda [eigen -fullGenLapack $numModes];

# Calculate periods

set T {}
foreach lam $lambda {
  lappend T [expr 6.283185/sqrt($lam)]
}

# Write periods file

set period "Periods.out"
set Periods [open $period "w"]
foreach t $T {
  puts $Periods "$t"
}
close $Periods

# Analysis options
# How the SOE is solved
system BandGeneral 
# Reduce de band width eliminating zeros in different matrix 
numberer RCM

constraints Transformation
integrator LoadControl 1 
algorithm Linear 
analysis Static
analyze 1

# --------------------------------------------------------------------------------------------------------------

set time_end [clock seconds]
set analysisTime [expr $time_end-$time_start]
puts "Analysis finished : [clock format $time_end -format %H:%M:%S]"
puts "Analysis time     : $analysisTime seconds"
puts "\nAnalysis finished."

# --------------------------------------------------------------------------------------------------------------
#
# M E T A D A T A
#
# --------------------------------------------------------------------------------------------------------------

# Number of nodes
# 2772

# Elements 1D

# 0

# Elements 2D
# 0

# Elements 3D
# 2200

# stdBrick
# 2200
# 1 2 3 4 5 6 7 8 9 10 11 12 13 14 15 16 17 18 19 20 21 22 23 24 25 26 27 28 29 30 31 32 33 34 35 36 37 38 39 40 41 42 43 44 45 46 47 48 49 50 51 52 53 54 55 56 57 58 59 60 61 62 63 64 65 66 67 68 69 70 71 72 73 74 75 76 77 78 79 80 81 82 83 84 85 86 87 88 89 90 91 92 93 94 95 96 97 98 99 100 101 102 103 104 105 106 107 108 109 110 111 112 113 114 115 116 117 118 119 120 121 122 123 124 125 126 12
