#
#  _____ _______       _____                  _____                  _____      _             __               
# |  __ (_)  _  \  _  |  _  |                /  ___|                |_   _|    | |           / _|              
# | |  \/_| | | |_| |_| | | |_ __   ___ _ __ \ `--.  ___  ___  ___    | | _ __ | |_ ___ _ __| |_ __ _  ___ ___ 
# | | __| | | | |_   _| | | | '_ \ / _ \ '_ \ `--. \/ _ \/ _ \/ __|   | || '_ \| __/ _ \ '__|  _/ _` |/ __/ _ \
# | |_\ \ | |/ /  |_| \ \_/ / |_) |  __/ | | /\__/ /  __/  __/\__ \  _| || | | | ||  __/ |  | || (_| | (_|  __/
#  \____/_|___/        \___/| .__/ \___|_| |_\____/ \___|\___||___/  \___/_| |_|\__\___|_|  |_| \__,_|\___\___|
#                           | |                                                                                
#                           |_|                                                                                
#
# GiD + OpenSees Interface - An Integrated FEA Platform
# Copyright (C) 2016-2017
#
# Lab of R/C and Masonry Structures
# School of Civil Engineering, AUTh
#  
# Development team
#
# T. Kartalis-Kaounis, Civil Engineer AUTh
# V. Protopapadakis, Civil Engineer AUTh
# T. Papadopoulos, Civil Engineer AUTh
# 
# Project coordinator
#
# V.K. Papanikolaou, Assistant Professor AUTh
#
# This program is free software: you can redistribute it and/or modify
# it under the terms of the GNU General Public License as published by
# the Free Software Foundation, either version 3 of the License, or
# (at your option) any later version.
#
# This program is distributed in the hope that it will be useful,
# but WITHOUT ANY WARRANTY; without even the implied warranty of
# MERCHANTABILITY or FITNESS FOR A PARTICULAR PURPOSE.  See the
# GNU General Public License for more details.
#
# You should have received a copy of the GNU General Public License
# along with this program.  If not, see <http://www.gnu.org/licenses/>.

# --------------------------------------------------------------------------------------------------------------
#
# OPENSEES MODEL DATA FILE (Three dimensional / Three degrees of freedom)
#
# --------------------------------------------------------------------------------------------------------------

# Modeling environment (ndm = model dimensions, ndf = global degrees of freedom)

model BasicBuilder -ndm 3 -ndf 3

# --------------------------------------------------------------------------------------------------------------
# N O D E S
# --------------------------------------------------------------------------------------------------------------

# node $NodeTag $XCoord $Ycoord %Zcoord

node      1    0.000   10.000   11.000
node      2    0.000    9.000   11.000
node      3    0.000   10.000   10.000
node      4    1.000   10.000   11.000
node      5    0.000    9.000   10.000
node      6    1.000    9.000   11.000
node      7    1.000   10.000   10.000
node      8    1.000    9.000   10.000
node      9    0.000   10.000    9.000
node     10    2.000   10.000   11.000
node     11    0.000    8.000   11.000
node     12    2.000   10.000   10.000
node     13    0.000    9.000    9.000
node     14    2.000    9.000   11.000
node     15    1.000   10.000    9.000
node     16    1.000    8.000   11.000
node     17    0.000    8.000   10.000
node     18    1.000    9.000    9.000
node     19    2.000    9.000   10.000
node     20    1.000    8.000   10.000
# ... 2752 like lines cut

# --------------------------------------------------------------------------------------------------------------
# R E S T R A I N T S
# --------------------------------------------------------------------------------------------------------------

# fix $NodeTag x-transl y-transl z-transl

fix      1   1   0   0
fix      2   1   0   0
fix      3   1   0   0
fix      4   0   1   0
fix      5   1   0   0
fix      7   0   1   0
fix      9   1   0   0
fix     10   0   1   0
fix     11   1   0   0
fix     12   0   1   0
fix     13   1   0   0
fix     15   0   1   0
fix     17   1   0   0
fix     21   0   1   0
fix     23   1   0   0
fix     24   1   0   0
fix     25   0   1   0
fix     26   1   0   0
fix     32   1   0   0
fix     33   1   0   0
# ... 871 like lines cut

# fix of unused DOFs for stdBrick nodes


# --------------------------------------------------------------------------------------------------------------
# S T A N D A R D   B R I C K   E L E M E N T S
# --------------------------------------------------------------------------------------------------------------

# nDMaterial Definition

nDMaterial PressureIndependMultiYield 16 3 1.7 60000 120000 0.1 0.08 26 34 0.5 20
nDMaterial PressureIndependMultiYield 31 3 2 80000 150000 0.1 0.12 30 84 0.5 20
nDMaterial PressureIndependMultiYield 32 3 2.1 80000 180000 0.1 0.12 32 92.5 0.5 20

# stdBrick element definition: element stdBrick $eleTag $node1 $node2 $node3 $node4 $node5 $node6 $node7 $node8 $matTag <$b1 $b2 $b3>

element stdBrick      1   1364   1353   1498   1503   1492   1477   1612   1625    32    0.000    0.000    0.000
element stdBrick      2   1382   1364   1503   1528   1507   1492   1625   1636    32    0.000    0.000    0.000
element stdBrick      3   1419   1382   1528   1559   1542   1507   1636   1673    32    0.000    0.000    0.000
element stdBrick      4   1458   1419   1559   1598   1582   1542   1673   1713    32    0.000    0.000    0.000
element stdBrick      5   1522   1458   1598   1651   1635   1582   1713   1760    32    0.000    0.000    0.000
element stdBrick      6   1590   1522   1651   1722   1707   1635   1760   1814    32    0.000    0.000    0.000
element stdBrick      7   1672   1590   1722   1791   1775   1707   1814   1889    32    0.000    0.000    0.000
element stdBrick      8   1754   1672   1791   1861   1850   1775   1889   1955    32    0.000    0.000    0.000
element stdBrick      9   1845   1754   1861   1946   1934   1850   1955   2036    32    0.000    0.000    0.000
element stdBrick     10   1931   1845   1946   2033   2026   1934   2036   2112    32    0.000    0.000    0.000
element stdBrick     11   2031   1931   2033   2117   2110   2026   2112   2212    32    0.000    0.000    0.000
element stdBrick     12   2130   2031   2117   2221   2215   2110   2212   2295    32    0.000    0.000    0.000
element stdBrick     13   2233   2130   2221   2321   2309   2215   2295   2398    32    0.000    0.000    0.000
element stdBrick     14   2345   2233   2321   2420   2413   2309   2398   2494    32    0.000    0.000    0.000
element stdBrick     15   2452   2345   2420   2535   2524   2413   2494   2589    32    0.000    0.000    0.000
element stdBrick     16   2563   2452   2535   2620   2615   2524   2589   2664    32    0.000    0.000    0.000
element stdBrick     17   2648   2563   2620   2693   2687   2615   2664   2723    32    0.000    0.000    0.000
element stdBrick     18   2712   2648   2693   2741   2735   2687   2723   2752    32    0.000    0.000    0.000
element stdBrick     19   2751   2712   2741   2762   2760   2735   2752   2768    32    0.000    0.000    0.000
element stdBrick     20   2766   2751   2762   2771   2770   2760   2768   2772    32    0.000    0.000    0.000
# ... 2180 like lines cut

# --------------------------------------------------------------------------------------------------------------
# R E C O R D E R S
# --------------------------------------------------------------------------------------------------------------

recorder Element -file stdBrick_force.out -time -eleRange 1 2200 forces
recorder Element -file stdBrick_stress.out -time -eleRange 1 2200 stresses
recorder Element -file stdBrick_strain.out -time -eleRange 1 2200 strains
recorder Node -file Node_displacements.out -time -nodeRange 1 2772 -dof 1 2 3 disp
recorder Node -file Node_reactions.out -time -nodeRange 1 2772 -dof 1 2 3 reaction

logFile log.txt

# --------------------------------------------------------------------------------------------------------------

set time_start [clock seconds]
puts "\nAnalysis started  : [clock format $time_start -format %H:%M:%S]"
puts ""

# --------------------------------------------------------------------------------------------------------------
#
# I N T E R V A L   1
#
# --------------------------------------------------------------------------------------------------------------

puts "Interval 1"
puts ""

# Loads

pattern Plain 100 Linear {
}

# Analysis options

system BandGeneral
numberer RCM
constraints Transformation
integrator LoadControl 1 
algorithm Linear 
analysis Static
analyze 1

# --------------------------------------------------------------------------------------------------------------

set time_end [clock seconds]
set analysisTime [expr $time_end-$time_start]
puts "Analysis finished : [clock format $time_end -format %H:%M:%S]"
puts "Analysis time     : $analysisTime seconds"
puts "\nAnalysis finished."

# --------------------------------------------------------------------------------------------------------------
#
# M E T A D A T A
#
# --------------------------------------------------------------------------------------------------------------

# Number of nodes
# 2772

# Elements 1D

# 0

# Elements 2D
# 0

# Elements 3D
# 2200

# stdBrick
# 2200
# 1 2 3 4 5 6 7 8 9 10 11 12 13 14 15 16 17 18 19 20 21 22 23 24 25 26 27 28 29 30 31 32 33 34 35 36 37 38 39 40 41 42 43 44 45 46 47 48 49 50 51 52 53 54 55 56 57 58 59 60 61 62 63 64 65 66 67 68 69 70 71 72 73 74 75 76 77 78 79 80 81 82 83 84 85 86 87 88 89 90 91 92 93 94 95 96 97 98 99 100 101 102 103 104 105 106 107 108 109 110 111 112 113 114 115 116 117 118 119 120 121 122 123 124 125 126 12
