# POLB01.tcl --
#
#        The main .tcl file for OpenSees.
#
# Created on: 10/14/2017 9:53:35 PM
#
# Created by: 
#       OpenSeesPL (Edu Version 2.5.5.60426)
# OpenSees Analysis of 3D Lateral Pile-Ground Interaction
#      Copyright (c) 2008-2015 All Rights Reserved.
#

wipe


set parallel 0; # 0 -- sequential run (e.g., on a PC)
                # 1 -- parallel run
switch $parallel {
  0 {
    set solver "SparseSYM"
  }
  1 {
    set solver "Mumps"
#   set solver "Mumps -ICNTL14 50"
  }
}

set algorithm "KrylovNewton"
#set numberer "Plain"
set numberer "RCM"
set outfmt "-file"
# Unit system in this file: SI

# define UNITS ---------------------------------------------
set g 9.81; 	# gravitational acceleration (also good for US/EN units since SI is actually used)
set nonlinear 1
set gamma 0.5
# Rayleigh Damping
set am 1.180000e-001
set ak 1.000000e-003
set numSteps 4187
set compdT 0.02
# remove any existing old files so post-processing would not read wrong files
file delete POLB01.tim
file delete POLB01.dsp
file delete POLB01.frq
file delete traceStop.txt
model basic -ndm 3 -ndf 4
node      1   0.000000e+000   0.000000e+000  -3.700000e+001
node      2   0.000000e+000   0.000000e+000  -3.225000e+001
node      3   0.000000e+000   0.000000e+000  -2.750000e+001
node      4   0.000000e+000   0.000000e+000  -2.275000e+001
node      5   0.000000e+000   0.000000e+000  -1.800000e+001
node      6   0.000000e+000   0.000000e+000  -1.350000e+001
node      7   0.000000e+000   0.000000e+000  -9.000000e+000
node      8   0.000000e+000   0.000000e+000  -8.250000e+000
node      9   0.000000e+000   0.000000e+000  -7.500000e+000
node     10   0.000000e+000   0.000000e+000  -5.000000e+000
node     11   0.000000e+000   0.000000e+000  -2.500000e+000
node     12   0.000000e+000   0.000000e+000   0.000000e+000
node     13   5.000000e-001   0.000000e+000  -3.700000e+001
node     14   5.000000e-001   0.000000e+000  -3.225000e+001
node     15   5.000000e-001   0.000000e+000  -2.750000e+001
node     16   5.000000e-001   0.000000e+000  -2.275000e+001
node     17   5.000000e-001   0.000000e+000  -1.800000e+001
node     18   5.000000e-001   0.000000e+000  -1.350000e+001
node     19   5.000000e-001   0.000000e+000  -9.000000e+000
node     20   5.000000e-001   0.000000e+000  -8.250000e+000
# ... 1420 like lines cut

fixX [expr -8.150000e+001] 1 1 0 0 -tol 1e-4
fixX [expr 8.150000e+001] 1 1 0 0 -tol 1e-4
fixY [expr 0.000000e+000] 0 1 0 0 -tol 1e-4
fixY [expr 8.150000e+001] 1 1 0 0 -tol 1e-4
fixZ [expr -3.700000e+001] 0 0 1 0 -tol 1e-4
# fix the nodes at 4 sides of the base
fix      1 0 1 1 0
fix     13 0 1 1 0
fix    205 0 1 1 0
fix    217 0 1 1 0
fix    409 0 1 1 0
fix    421 0 1 1 0
fix    613 0 1 1 0
fix    625 0 1 1 0
fix    817 0 1 1 0
fix    829 0 1 1 0
fix   1021 0 1 1 0
fix   1033 0 1 1 0
fix   1225 0 1 1 0
fix   1237 1 1 1 0
fix   1249 1 0 1 0
fix   1261 1 0 1 0
fix   1273 1 0 1 0
fix   1285 1 1 1 0
fix   1297 0 1 1 0
fix   1309 0 1 1 0
# ... 10 like lines cut

fix     11 0 0 0 1
fix     12 0 0 0 1
fix     23 0 0 0 1
fix     24 0 0 0 1
fix     35 0 0 0 1
fix     36 0 0 0 1
fix     47 0 0 0 1
fix     48 0 0 0 1
fix     59 0 0 0 1
fix     60 0 0 0 1
fix     71 0 0 0 1
fix     72 0 0 0 1
fix     83 0 0 0 1
fix     84 0 0 0 1
fix     95 0 0 0 1
fix     96 0 0 0 1
fix    107 0 0 0 1
fix    108 0 0 0 1
fix    119 0 0 0 1
fix    120 0 0 0 1
# ... 220 like lines cut




set numys 20
# Loose soil or very loose soil
# nDMaterial PressureDependMultiYield 1 3  1.7 5.5000e+04 1.5000e+05 29.0 0.1 80 0.5\
# 					                 29.0 0.21 0.0 0.0   10.0 0.02 1.0 $numys
# Medium soil
# nDMaterial PressureDependMultiYield 1 3  1.9 7.500e+04 2.0e+05 33.0 0.1 80 0.5\
# 					                 27.0 0.07 0.4 2.0    10.0 0.01 1.0 $numys
# Medium-dense soil
# nDMaterial PressureDependMultiYield 1 3  2.0 1.0e+05 3.e+05 37.0 0.1 80 0.5\
#					                 27.0 0.05 0.6 3.0    5.0 0.003 1 $numys
# Dense soil
# nDMaterial PressureDependMultiYield 1 3  2.1 1.300e+05 3.9000e+05 40.0 0.1 80 0.5\
# 					                 27.0 0.03 0.8 5.0    0.0 0.0 0.0 $numys
# Soft clay
# nDMaterial PressureIndependMultiYield 1 3 1.3 1.3e+4 6.5e+04 18.0 0.1
# Medium clay
# nDMaterial PressureIndependMultiYield 1 3 1.5 6e+4 3e+5 37.0 0.1
# Stiff clay
# nDMaterial PressureIndependMultiYield 1 3 1.8 1.5e+5 7.5e+5 75.0 0.1
# U Clay1: PressureIndependMultiYield
nDMaterial PressureIndependMultiYieldTC  1 3 2.000000e+000 1.300000e+004 6.500000e+004 1.400000e+001 1.300000e-001\
3.400000e+001  1.000000e+002 0.000000e+000 					                  20 
# U Sand2A: PressureDependMultiYield02
nDMaterial PressureDependMultiYield02  2 3 1.800000e+000 9.000000e+004 2.200000e+005 3.400000e+001 1.000000e-001 1.010000e+002 5.000000e-001\
					                 2.600000e+001 6.700000e-002 2.300000e-001 6.000000e-002  2.700000e-001\
                                20  5.0 3.0 1.0 0.0 0.6 0.9 0.02 0.7 101 1.000000e-001

# U Sand2A: PressureDependMultiYield02
nDMaterial PressureDependMultiYield02  3 3 1.900000e+000 1.100000e+005 2.400000e+005 3.000000e+001 1.000000e-001 1.010000e+002 5.000000e-001\
					                 2.600000e+001 2.800000e-002 5.000000e-002 1.000000e-001  5.000000e-002\
                                20  5.0 3.0 1.0 0.0 0.6 0.9 0.02 0.7 101 1.000000e-001

# U Sand2A: PressureDependMultiYield02
nDMaterial PressureDependMultiYield02  4 3 2.100000e+000 1.300000e+005 2.600000e+005 3.800000e+001 1.000000e-001 1.010000e+002 5.000000e-001\
					                 2.600000e+001 1.300000e-002 0.000000e+000 3.000000e-001  0.000000e+000\
                                20  5.0 3.0 1.0 0.0 0.6 0.9 0.02 0.7 101 1.000000e-001

set gravX 0.0
set gravZ [expr -1*9.81]
set gravY 0.0
set press 0.0

set bulk 2200000
set fmass 1

element brickUP      1      1     13     25     37      2     14     26     38     4 $bulk $fmass [expr 1.000000e+002/$g/$fmass] [expr 1.000000e+002/$g/$fmass] [expr 1.000000e+002/$g/$fmass] $gravX $gravY $gravZ
element brickUP      2      1     37     49     61      2     38     50     62     4 $bulk $fmass [expr 1.000000e+002/$g/$fmass] [expr 1.000000e+002/$g/$fmass] [expr 1.000000e+002/$g/$fmass] $gravX $gravY $gravZ
element brickUP      3      1     61     73     85      2     62     74     86     4 $bulk $fmass [expr 1.000000e+002/$g/$fmass] [expr 1.000000e+002/$g/$fmass] [expr 1.000000e+002/$g/$fmass] $gravX $gravY $gravZ
element brickUP      4      1     85     97    109      2     86     98    110     4 $bulk $fmass [expr 1.000000e+002/$g/$fmass] [expr 1.000000e+002/$g/$fmass] [expr 1.000000e+002/$g/$fmass] $gravX $gravY $gravZ
element brickUP      5      1    109    121    133      2    110    122    134     4 $bulk $fmass [expr 1.000000e+002/$g/$fmass] [expr 1.000000e+002/$g/$fmass] [expr 1.000000e+002/$g/$fmass] $gravX $gravY $gravZ
element brickUP      6      1    133    145    157      2    134    146    158     4 $bulk $fmass [expr 1.000000e+002/$g/$fmass] [expr 1.000000e+002/$g/$fmass] [expr 1.000000e+002/$g/$fmass] $gravX $gravY $gravZ
element brickUP      7      1    157    169    181      2    158    170    182     4 $bulk $fmass [expr 1.000000e+002/$g/$fmass] [expr 1.000000e+002/$g/$fmass] [expr 1.000000e+002/$g/$fmass] $gravX $gravY $gravZ
element brickUP      8      1    181    193    205      2    182    194    206     4 $bulk $fmass [expr 1.000000e+002/$g/$fmass] [expr 1.000000e+002/$g/$fmass] [expr 1.000000e+002/$g/$fmass] $gravX $gravY $gravZ
element brickUP      9     13    217    229     25     14    218    230     26     4 $bulk $fmass [expr 1.000000e+002/$g/$fmass] [expr 1.000000e+002/$g/$fmass] [expr 1.000000e+002/$g/$fmass] $gravX $gravY $gravZ
element brickUP     10     25    229    241     37     26    230    242     38     4 $bulk $fmass [expr 1.000000e+002/$g/$fmass] [expr 1.000000e+002/$g/$fmass] [expr 1.000000e+002/$g/$fmass] $gravX $gravY $gravZ
element brickUP     11     37    241    253     49     38    242    254     50     4 $bulk $fmass [expr 1.000000e+002/$g/$fmass] [expr 1.000000e+002/$g/$fmass] [expr 1.000000e+002/$g/$fmass] $gravX $gravY $gravZ
element brickUP     12     49    253    265     61     50    254    266     62     4 $bulk $fmass [expr 1.000000e+002/$g/$fmass] [expr 1.000000e+002/$g/$fmass] [expr 1.000000e+002/$g/$fmass] $gravX $gravY $gravZ
element brickUP     13     61    265    277     73     62    266    278     74     4 $bulk $fmass [expr 1.000000e+002/$g/$fmass] [expr 1.000000e+002/$g/$fmass] [expr 1.000000e+002/$g/$fmass] $gravX $gravY $gravZ
element brickUP     14     73    277    289     85     74    278    290     86     4 $bulk $fmass [expr 1.000000e+002/$g/$fmass] [expr 1.000000e+002/$g/$fmass] [expr 1.000000e+002/$g/$fmass] $gravX $gravY $gravZ
element brickUP     15     85    289    301     97     86    290    302     98     4 $bulk $fmass [expr 1.000000e+002/$g/$fmass] [expr 1.000000e+002/$g/$fmass] [expr 1.000000e+002/$g/$fmass] $gravX $gravY $gravZ
element brickUP     16     97    301    313    109     98    302    314    110     4 $bulk $fmass [expr 1.000000e+002/$g/$fmass] [expr 1.000000e+002/$g/$fmass] [expr 1.000000e+002/$g/$fmass] $gravX $gravY $gravZ
element brickUP     17    109    313    325    121    110    314    326    122     4 $bulk $fmass [expr 1.000000e+002/$g/$fmass] [expr 1.000000e+002/$g/$fmass] [expr 1.000000e+002/$g/$fmass] $gravX $gravY $gravZ
element brickUP     18    121    325    337    133    122    326    338    134     4 $bulk $fmass [expr 1.000000e+002/$g/$fmass] [expr 1.000000e+002/$g/$fmass] [expr 1.000000e+002/$g/$fmass] $gravX $gravY $gravZ
element brickUP     19    133    337    349    145    134    338    350    146     4 $bulk $fmass [expr 1.000000e+002/$g/$fmass] [expr 1.000000e+002/$g/$fmass] [expr 1.000000e+002/$g/$fmass] $gravX $gravY $gravZ
element brickUP     20    145    349    361    157    146    350    362    158     4 $bulk $fmass [expr 1.000000e+002/$g/$fmass] [expr 1.000000e+002/$g/$fmass] [expr 1.000000e+002/$g/$fmass] $gravX $gravY $gravZ
# ... 1124 like lines cut

updateMaterials -material 1 shearModulus [expr 2.000003e+005]
updateMaterials -material 1 bulkModulus [expr 3.999980e+010]
updateMaterials -material 2 shearModulus [expr 1.800003e+005]
updateMaterials -material 2 bulkModulus [expr 3.599982e+010]
updateMaterials -material 3 shearModulus [expr 1.900003e+005]
updateMaterials -material 3 bulkModulus [expr 3.799981e+010]
updateMaterials -material 4 shearModulus [expr 2.100004e+005]
updateMaterials -material 4 bulkModulus [expr 4.199979e+010]

set numnp 1440
set SnodeList {}
for {set i 1} {$i <= $numnp} {incr i 1} {
lappend SnodeList [expr $i]
}

set FnodeList {}
for {set i 1} {$i <= $numnp} {incr i 1} {
lappend FnodeList [expr $i]
}

set numel 1144
set EnodeList {}
for {set i 1} {$i <= $numel} {incr i 1} {
lappend EnodeList [expr $i]
}

set HistNodes(0) {12 11 10 9 8 7 6 5 4 3 2 1 }
set HistNodes(1) {24 23 22 21 20 19 18 17 16 15 14 13 }
set HistNodes(2) {228 227 226 225 224 223 222 221 220 219 218 217 }
set HistNodes(3) {432 431 430 429 428 427 426 425 424 423 422 421 }
set HistNodes(4) {636 635 634 633 632 631 630 629 628 627 626 625 }
set HistNodes(5) {840 839 838 837 836 835 834 833 832 831 830 829 }
set HistNodes(6) {1044 1043 1042 1041 1040 1039 1038 1037 1036 1035 1034 1033 }
set HistNodes(7) {1248 1247 1246 1245 1244 1243 1242 1241 1240 1239 1238 1237 }
set HistNodes(8) {216 215 214 213 212 211 210 209 208 207 206 205 }
set HistNodes(9) {420 419 418 417 416 415 414 413 412 411 410 409 }
set HistNodes(10) {624 623 622 621 620 619 618 617 616 615 614 613 }
set HistNodes(11) {828 827 826 825 824 823 822 821 820 819 818 817 }
set HistNodes(12) {1032 1031 1030 1029 1028 1027 1026 1025 1024 1023 1022 1021 }
set HistNodes(13) {1236 1235 1234 1233 1232 1231 1230 1229 1228 1227 1226 1225 }
set HistNodes(14) {1440 1439 1438 1437 1436 1435 1434 1433 1432 1431 1430 1429 }
set HistNodes(15) {12 11 10 9 8 7 6 5 4 3 2 1 }
set HistNodes(16) {120 119 118 117 116 115 114 113 112 111 110 109 }
set HistNodes(17) {324 323 322 321 320 319 318 317 316 315 314 313 }
set HistNodes(18) {528 527 526 525 524 523 522 521 520 519 518 517 }
set HistNodes(19) {732 731 730 729 728 727 726 725 724 723 722 721 }
set HistNodes(20) {936 935 934 933 932 931 930 929 928 927 926 925 }
set HistNodes(21) {1140 1139 1138 1137 1136 1135 1134 1133 1132 1131 1130 1129 }
set HistNodes(22) {1344 1343 1342 1341 1340 1339 1338 1337 1336 1335 1334 1333 }
set HistNodes(23) {}
set HistNodes(24) {}
set HistNodes(25) {}
set HistNodes(26) {}
set HistNodes(27) {}
set HistNodes(28) {}
set HistNodes(29) {}
set HistOutNodeList {}
set NumOutLocs 30
for {set i 0} {$i < $NumOutLocs} {incr i 1} {
  set HistOutNodeList [concat $HistOutNodeList $HistNodes($i)]
}
#puts "$HistOutNodeList"

set HistEles(0) {1041 937 833 729 625 521 417 313 209 105 1 }
set HistEles(1) {1049 945 841 737 633 529 425 321 217 113 9 }
set HistEles(2) {1065 961 857 753 649 545 441 337 233 129 25 }
set HistEles(3) {1081 977 873 769 665 561 457 353 249 145 41 }
set HistEles(4) {1097 993 889 785 681 577 473 369 265 161 57 }
set HistEles(5) {1113 1009 905 801 697 593 489 385 281 177 73 }
set HistEles(6) {1129 1025 921 817 713 609 505 401 297 193 89 }
set HistEles(7) {1129 1025 921 817 713 609 505 401 297 193 89 }
set HistEles(8) {1048 944 840 736 632 528 424 320 216 112 8 }
set HistEles(9) {1064 960 856 752 648 544 440 336 232 128 24 }
set HistEles(10) {1080 976 872 768 664 560 456 352 248 144 40 }
set HistEles(11) {1096 992 888 784 680 576 472 368 264 160 56 }
set HistEles(12) {1112 1008 904 800 696 592 488 384 280 176 72 }
set HistEles(13) {1128 1024 920 816 712 608 504 400 296 192 88 }
set HistEles(14) {1144 1040 936 832 728 624 520 416 312 208 104 }
set HistEles(15) {1045 941 837 733 629 525 421 317 213 109 5 }
set HistEles(16) {1057 953 849 745 641 537 433 329 225 121 17 }
set HistEles(17) {1073 969 865 761 657 553 449 345 241 137 33 }
set HistEles(18) {1089 985 881 777 673 569 465 361 257 153 49 }
set HistEles(19) {1105 1001 897 793 689 585 481 377 273 169 65 }
set HistEles(20) {1121 1017 913 809 705 601 497 393 289 185 81 }
set HistEles(21) {1137 1033 929 825 721 617 513 409 305 201 97 }
set HistEles(22) {1137 1033 929 825 721 617 513 409 305 201 97 }
set HistEles(23) {}
set HistEles(24) {}
set HistEles(25) {}
set HistEles(26) {}
set HistEles(27) {}
set HistEles(28) {}
set HistEles(29) {}
set HistOutEleList {}
set NumOutLocs 30
for {set i 0} {$i < $NumOutLocs} {incr i 1} {
  set HistOutEleList [concat $HistOutEleList $HistEles($i)]
}
#puts "$HistOutEleList"


#create trace file for progress bar display
set tracefnameTot "traceTot.txt"
set tracefnameCurr "traceCurr.txt"


########################
# Gravity application  #
########################

# elastic behavior ---------------------------------------------- 1st run
numberer $numberer
eval "system $solver"
test NormDispIncr  1.00e-004 100 1
eval "algorithm $algorithm"
# algorithm ModifiedNewton
constraints Penalty 1.e18 1.e18
#integrator LoadControl 1 1 1 1
#analysis Static 
integrator Newmark 1.5  1.
analysis Transient 
eval "recorder Node $outfmt POLB01.dg0 -time -node $SnodeList -dof 1 2 3 disp"
eval "recorder Node $outfmt POLB01.pg0 -time -node $FnodeList -dof 4 vel"
eval "recorder Node $outfmt POLB01.histdg0 -time -node $HistOutNodeList -dof 1 2 3 disp"
eval "recorder Node $outfmt POLB01.histpg0 -time -node $HistOutNodeList -dof 4 vel"
eval "recorder Element $outfmt POLB01.s1g0 -element $EnodeList  -time  material 1 stress"
eval "recorder Element $outfmt POLB01.s2g0 -element $EnodeList  -time  material 2 stress"
eval "recorder Element $outfmt POLB01.s3g0 -element $EnodeList  -time  material 3 stress"
eval "recorder Element $outfmt POLB01.s4g0 -element $EnodeList  -time  material 4 stress"
eval "recorder Element $outfmt POLB01.s5g0 -element $EnodeList  -time  material 5 stress"
eval "recorder Element $outfmt POLB01.s6g0 -element $EnodeList  -time  material 6 stress"
eval "recorder Element $outfmt POLB01.s7g0 -element $EnodeList  -time  material 7 stress"
eval "recorder Element $outfmt POLB01.s8g0 -element $EnodeList  -time  material 8 stress"
eval "recorder Element $outfmt POLB01.str1g0 -element $EnodeList  -time  material 1 strain"
eval "recorder Element $outfmt POLB01.str2g0 -element $EnodeList  -time  material 2 strain"
eval "recorder Element $outfmt POLB01.str3g0 -element $EnodeList  -time  material 3 strain"
eval "recorder Element $outfmt POLB01.str4g0 -element $EnodeList  -time  material 4 strain"
eval "recorder Element $outfmt POLB01.str5g0 -element $EnodeList  -time  material 5 strain"
eval "recorder Element $outfmt POLB01.str6g0 -element $EnodeList  -time  material 6 strain"
eval "recorder Element $outfmt POLB01.str7g0 -element $EnodeList  -time  material 7 strain"
eval "recorder Element $outfmt POLB01.str8g0 -element $EnodeList  -time  material 8 strain"

set fileId [open $tracefnameTot "w"]
puts $fileId "1 5"
close $fileId

set fileId [open $tracefnameCurr "w"]
puts $fileId 0
close $fileId

set ok [analyze 5  5.00e+004]
if {$ok != 0} { return $ok }
puts "First run done."
# fix base before dynamic run
model basic -ndm 3 -ndf 4
fixZ [expr -3.700000e+001] 1 1 1 0 -tol 1e-4

# switch material stage from elastic (gravity) to plastic ------- 2nd run
updateMaterialStage -material 1 -stage $nonlinear
updateMaterials -material 1 shearModulus [expr 1.300000e+004]
updateMaterials -material 1 bulkModulus [expr 6.500000e+004]
updateMaterialStage -material 2 -stage $nonlinear
updateMaterials -material 2 shearModulus [expr 9.000000e+004]
updateMaterials -material 2 bulkModulus [expr 2.200000e+005]
updateMaterialStage -material 3 -stage $nonlinear
updateMaterials -material 3 shearModulus [expr 1.100000e+005]
updateMaterials -material 3 bulkModulus [expr 2.400000e+005]
updateMaterialStage -material 4 -stage $nonlinear
updateMaterials -material 4 shearModulus [expr 1.300000e+005]
updateMaterials -material 4 bulkModulus [expr 2.600000e+005]

set fileId [open $tracefnameTot "w"]
puts $fileId "2 5"
close $fileId

set fileId [open $tracefnameCurr "w"]
puts $fileId 0
close $fileId

set ok [analyze 5  5.00e+004]
if {$ok != 0} { return $ok }
puts "Second run done."


wipeAnalysis
set pileNodes {}
set pileEles {}
set pileCapNodes {}
set linkEles {}
set linkNodes {}
set pierNodes {}
model basic -ndm 3 -ndf 6
node   1441   5.000000e-001   0.000000e+000  -9.000000e+000
node   1442   4.903926e-001   9.754516e-002  -9.000000e+000
node   1443   4.619398e-001   1.913417e-001  -9.000000e+000
node   1444   4.157348e-001   2.777851e-001  -9.000000e+000
node   1445   3.535534e-001   3.535534e-001  -9.000000e+000
node   1446   2.777851e-001   4.157348e-001  -9.000000e+000
node   1447   1.913417e-001   4.619398e-001  -9.000000e+000
node   1448   9.754516e-002   4.903926e-001  -9.000000e+000
node   1449   0.000000e+000   5.000000e-001  -9.000000e+000
node   1450  -9.754516e-002   4.903926e-001  -9.000000e+000
node   1451  -1.913417e-001   4.619398e-001  -9.000000e+000
node   1452  -2.777851e-001   4.157348e-001  -9.000000e+000
node   1453  -3.535534e-001   3.535534e-001  -9.000000e+000
node   1454  -4.157348e-001   2.777851e-001  -9.000000e+000
node   1455  -4.619398e-001   1.913417e-001  -9.000000e+000
node   1456  -4.903926e-001   9.754516e-002  -9.000000e+000
node   1457  -5.000000e-001   0.000000e+000  -9.000000e+000
node   1458   5.000000e-001   0.000000e+000  -8.250000e+000
node   1459   4.903926e-001   9.754516e-002  -8.250000e+000
node   1460   4.619398e-001   1.913417e-001  -8.250000e+000
# ... 92 like lines cut

# fix pile nodes in the symmetrical plane
fix 1543  0 1 0 1 0 1
fix 1544  0 1 0 1 0 1
fix 1545  0 1 0 1 0 1
fix 1546  0 1 0 1 0 1
fix 1547  0 1 0 1 0 1
fix 1548  0 1 0 1 0 1
fix 1549  0 1 0 1 0 1
fix 1550  0 1 0 1 0 1
fix 1551  0 1 0 1 0 1
fix 1552  0 1 0 1 0 1
# fix link nodes in the symmetrical plane
fix 1441  0 1 0 1 0 1
fix 1457  0 1 0 1 0 1
fix 1458  0 1 0 1 0 1
fix 1474  0 1 0 1 0 1
fix 1475  0 1 0 1 0 1
fix 1491  0 1 0 1 0 1
fix 1492  0 1 0 1 0 1
fix 1508  0 1 0 1 0 1
fix 1509  0 1 0 1 0 1
fix 1525  0 1 0 1 0 1
fix 1526  0 1 0 1 0 1
fix 1542  0 1 0 1 0 1

loadConst -time 0.0
set pileSeries "Series -time {50000 100000 150000 200000 250000 300000 350000 400000 450000 500000 550000 600000 650000 700000 750000 800000 850000 900000 950000 1000000 1050000 1100000 1150000 1200000 1250000 } -values {0.05 0.1 0.15 0.2 0.25 0.3 0.35 0.4 0.45 0.5 0.55 0.6 0.65 0.7 0.75 0.8 0.85 0.9 0.95 1 1 1 1 1 1 } -factor 1"
set numSteps3rdRun 25
loadConst -time 0.0

equalDOF     19   1441     1    2    3
equalDOF     31   1442     1    2    3
equalDOF     43   1443     1    2    3
equalDOF     55   1444     1    2    3
equalDOF     67   1445     1    2    3
equalDOF     79   1446     1    2    3
equalDOF     91   1447     1    2    3
equalDOF    103   1448     1    2    3
equalDOF    115   1449     1    2    3
equalDOF    127   1450     1    2    3
equalDOF    139   1451     1    2    3
equalDOF    151   1452     1    2    3
equalDOF    163   1453     1    2    3
equalDOF    175   1454     1    2    3
equalDOF    187   1455     1    2    3
equalDOF    199   1456     1    2    3
equalDOF    211   1457     1    2    3
equalDOF     20   1458     1    2    3
equalDOF     32   1459     1    2    3
equalDOF     44   1460     1    2    3
# ... 88 like lines cut
  mass 1552 7.500000e+000 7.500000e+000 7.500000e+000 0.0 0.0 0.0
pattern Plain 101 $pileSeries {
  load 1552 [expr 0.000000e+000*$g] 0.0 [expr -7.500000e+000*$g] 0.0 0.0 0.0
}

pattern Plain 103 $pileSeries {
  load 1552 0.0 0.0 [expr -2.000000e+002] 0.0 0.0 0.0
}
geomTransf Linear 1001 0 1 0
geomTransf Linear 1002 0 0 1
  set I  2.454500e-002
  set A  3.927000e-001
  set E  3.000000e+007
  set G  1.154000e+007
  set Jx 4.910000e-002
  # Rigid links for piled raft
  set ILink  2.454500e-002
  set ALink  3.927000e-001
  set ELink  1.000000e+012
  set GLink  1.000000e+012
  set JxLink 4.910000e-002
  element elasticBeamColumn   1145    1543    1544   $A $E $G $Jx $I $I 1001
  element elasticBeamColumn   1146    1544    1545   $A $E $G $Jx $I $I 1001
  element elasticBeamColumn   1147    1545    1546   $A $E $G $Jx $I $I 1001
  element elasticBeamColumn   1148    1546    1547   $A $E $G $Jx $I $I 1001
  element elasticBeamColumn   1149    1547    1548   $A $E $G $Jx $I $I 1001
  element elasticBeamColumn   1150    1548    1549   $A $E $G $Jx $I $I 1001
  element elasticBeamColumn   1151    1549    1550   $A $E $G $Jx $I $I 1001
  element elasticBeamColumn   1152    1550    1551   $A $E $G $Jx $I $I 1001
  element elasticBeamColumn   1153    1551    1552   $A $E $G $Jx $I $I 1001
  # Rigid links
  set I  2.454500e+002
  set A  3.927000e+003
  set E  3.000000e+007
  set G  1.154000e+007
  set Jx 4.910000e-002
  element elasticBeamColumn   1154    1543    1441   $A $E $G $Jx $I $I 1002
  element elasticBeamColumn   1155    1543    1442   $A $E $G $Jx $I $I 1002
  element elasticBeamColumn   1156    1543    1443   $A $E $G $Jx $I $I 1002
  element elasticBeamColumn   1157    1543    1444   $A $E $G $Jx $I $I 1002
  element elasticBeamColumn   1158    1543    1445   $A $E $G $Jx $I $I 1002
  element elasticBeamColumn   1159    1543    1446   $A $E $G $Jx $I $I 1002
  element elasticBeamColumn   1160    1543    1447   $A $E $G $Jx $I $I 1002
  element elasticBeamColumn   1161    1543    1448   $A $E $G $Jx $I $I 1002
  element elasticBeamColumn   1162    1543    1449   $A $E $G $Jx $I $I 1002
  element elasticBeamColumn   1163    1543    1450   $A $E $G $Jx $I $I 1002
  element elasticBeamColumn   1164    1543    1451   $A $E $G $Jx $I $I 1002
  element elasticBeamColumn   1165    1543    1452   $A $E $G $Jx $I $I 1002
  element elasticBeamColumn   1166    1543    1453   $A $E $G $Jx $I $I 1002
  element elasticBeamColumn   1167    1543    1454   $A $E $G $Jx $I $I 1002
  element elasticBeamColumn   1168    1543    1455   $A $E $G $Jx $I $I 1002
  element elasticBeamColumn   1169    1543    1456   $A $E $G $Jx $I $I 1002
  element elasticBeamColumn   1170    1543    1457   $A $E $G $Jx $I $I 1002
  element elasticBeamColumn   1171    1544    1458   $A $E $G $Jx $I $I 1002
  element elasticBeamColumn   1172    1544    1459   $A $E $G $Jx $I $I 1002
  element elasticBeamColumn   1173    1544    1460   $A $E $G $Jx $I $I 1002
# ... 82 like lines cut
set pileNodes {1543 1544 1545 1546 1547 1548 1549 1550 1551 1552  }
set pierNodes {}

for {set i 1154 } {$i <= 1255 } {incr i 1} {
lappend linkEles [expr $i]
}

set linkNodes {1441 1442 1443 1444 1445 1446 1447 1448 1449 1450 1451 1452 1453 1454 1455 1456 1457 1458 1459 1460 1461 1462 1463 1464 1465 1466 1467 1468 1469 1470 1471 1472 1473 1474 1475 1476 1477 1478 1479 1480 1481 1482 1483 1484 1485 1486 1487 1488 1489 1490 1491 1492 1493 1494 1495 1496 1497 1498 1499 1500 1501 1502 1503 1504 1505 1506 1507 1508 1509 1510 1511 1512 1513 1514 1515 1516 1517 

for {set i  1145 } {$i <= 1153 } {incr i 1} {
lappend pileEles [expr $i]
}
# add pile gravity ------- 3nd run
remove recorders
eval "recorder Node $outfmt POLB01.dg -time  -node $SnodeList $pileNodes $pileCapNodes $pierNodes -dof 1 2 3 disp"
eval "recorder Node $outfmt POLB01.pg -time  -node $FnodeList -dof 4 vel"
eval "recorder Node $outfmt POLB01.histdg -time  -node $HistOutNodeList -dof 1 2 3 disp"
eval "recorder Node $outfmt POLB01.histpg -time  -node $HistOutNodeList -dof 4 vel"
eval "recorder Element $outfmt POLB01.s1g -ele $EnodeList  -time   material 1 stress"
eval "recorder Element $outfmt POLB01.s2g -ele $EnodeList  -time   material 2 stress"
eval "recorder Element $outfmt POLB01.s3g -ele $EnodeList  -time   material 3 stress"
eval "recorder Element $outfmt POLB01.s4g -ele $EnodeList  -time   material 4 stress"
eval "recorder Element $outfmt POLB01.s5g -ele $EnodeList  -time   material 5 stress"
eval "recorder Element $outfmt POLB01.s6g -ele $EnodeList  -time   material 6 stress"
eval "recorder Element $outfmt POLB01.s7g -ele $EnodeList  -time   material 7 stress"
eval "recorder Element $outfmt POLB01.s8g -ele $EnodeList  -time   material 8 stress"
eval "recorder Element $outfmt POLB01.str1g -ele $EnodeList  -time   material 1 strain"
eval "recorder Element $outfmt POLB01.str2g -ele $EnodeList  -time   material 2 strain"
eval "recorder Element $outfmt POLB01.str3g -ele $EnodeList  -time   material 3 strain"
eval "recorder Element $outfmt POLB01.str4g -ele $EnodeList  -time   material 4 strain"
eval "recorder Element $outfmt POLB01.str5g -ele $EnodeList  -time   material 5 strain"
eval "recorder Element $outfmt POLB01.str6g -ele $EnodeList  -time   material 6 strain"
eval "recorder Element $outfmt POLB01.str7g -ele $EnodeList  -time   material 7 strain"
eval "recorder Element $outfmt POLB01.str8g -ele $EnodeList  -time   material 8 strain"
eval "recorder Element $outfmt POLB01.hists1g -ele $HistOutEleList  -time   material 1 stress"
eval "recorder Element $outfmt POLB01.histstr1g -ele $HistOutEleList  -time   material 1 strain"
eval "recorder Element $outfmt POLB01.pileforceg -time  -ele $pileEles globalForce"
eval "recorder Node $outfmt POLB01.piledispg -time  -node $pileNodes -dof 1 2 3 4 5 6 disp"
eval "recorder Node $outfmt POLB01.pileaccg -time  -node $pileNodes -dof 1 2 3 accel"
eval "recorder Node $outfmt POLB01.linkdispg -time  -node $linkNodes -dof 1 2 3 disp"
eval "recorder Element $outfmt POLB01.linkforceg -time  -ele $linkEles localForce"
numberer $numberer
eval "system $solver"
test NormDispIncr  1.00e-004 150 2
eval "algorithm $algorithm"
# algorithm ModifiedNewton
constraints Penalty 1.e18 1.e18
#integrator LoadControl 1 1 1 1
#analysis Static 
integrator Newmark 1.5  1.
analysis Transient 
set fileId [open $tracefnameTot "w"]
puts $fileId "3 $numSteps3rdRun"
close $fileId

set fileId [open $tracefnameCurr "w"]
puts $fileId 0
close $fileId

set ok [analyze [expr $numSteps3rdRun]  5.00e+004]
if {$ok != 0} { return $ok }
puts "Third run done."


#############################
# Loading (Pushover, or base shaking)(4rd run) # 
#############################

# rezero time
wipeAnalysis
loadConst -time 0.0


pattern Plain 2 Constant {
  sp 1552 4 0.0
  sp 1552 5 0.0
  sp 1552 6 0.0
}
# base input motion 
pattern UniformExcitation  10  1  -accel "Series -fileTime acc_time.txt -filePath acc_value.txt -factor [expr 8.000000e-001*$g]"


set paraTag1 3840
set paraTag2 6128

# Layer #1
for {set i 1 } {$i <= 208 } {incr i 1} {
  parameter [expr $paraTag1+$i] element $i hPerm
  parameter [expr $paraTag2+$i] element $i vPerm
  updateParameter [expr $paraTag1+$i] [expr  6.600000e-005/$g/$fmass]
  updateParameter [expr $paraTag2+$i] [expr  6.600000e-005/$g/$fmass]
}
# Layer #2
for {set i 209 } {$i <= 416 } {incr i 1} {
  parameter [expr $paraTag1+$i] element $i hPerm
  parameter [expr $paraTag2+$i] element $i vPerm
  updateParameter [expr $paraTag1+$i] [expr  6.600000e-005/$g/$fmass]
  updateParameter [expr $paraTag2+$i] [expr  6.600000e-005/$g/$fmass]
}
# Layer #3
for {set i 417 } {$i <= 832 } {incr i 1} {
  parameter [expr $paraTag1+$i] element $i hPerm
  parameter [expr $paraTag2+$i] element $i vPerm
  updateParameter [expr $paraTag1+$i] [expr  5.000000e-005/$g/$fmass]
  updateParameter [expr $paraTag2+$i] [expr  5.000000e-005/$g/$fmass]
}
# Layer #4
for {set i 833 } {$i <= 1144 } {incr i 1} {
  parameter [expr $paraTag1+$i] element $i hPerm
  parameter [expr $paraTag2+$i] element $i vPerm
  updateParameter [expr $paraTag1+$i] [expr  1.000000e-009/$g/$fmass]
  updateParameter [expr $paraTag2+$i] [expr  1.000000e-009/$g/$fmass]
}

# output responses
remove recorders
eval "recorder Node $outfmt POLB01.tim -time  -node 1 -dof 1 disp"
eval "recorder Node $outfmt POLB01.dsp -time  -node $SnodeList $pileNodes $pileCapNodes $pierNodes -dof 1 2 3 disp"
eval "recorder Node $outfmt POLB01.pwp -time  -node $FnodeList -dof 4 vel"
eval "recorder Node $outfmt POLB01.acc -time  -node $SnodeList -dof 1 2 3 accel"
eval "recorder Node $outfmt POLB01.histdsp -time  -node $HistOutNodeList -dof 1 2 3 disp"
eval "recorder Node $outfmt POLB01.histpwp -time  -node $HistOutNodeList -dof 4 vel"
eval "recorder Node $outfmt POLB01.histacc -time  -node $HistOutNodeList -dof 1 2 3 accel"
eval "recorder Element $outfmt POLB01.sts1 -ele $EnodeList  -time   material 1 stress"
eval "recorder Element $outfmt POLB01.sts2 -ele $EnodeList  -time   material 2 stress"
eval "recorder Element $outfmt POLB01.sts3 -ele $EnodeList  -time   material 3 stress"
eval "recorder Element $outfmt POLB01.sts4 -ele $EnodeList  -time   material 4 stress"
eval "recorder Element $outfmt POLB01.sts5 -ele $EnodeList  -time   material 5 stress"
eval "recorder Element $outfmt POLB01.sts6 -ele $EnodeList  -time   material 6 stress"
eval "recorder Element $outfmt POLB01.sts7 -ele $EnodeList  -time   material 7 stress"
eval "recorder Element $outfmt POLB01.sts8 -ele $EnodeList  -time   material 8 stress"
eval "recorder Element $outfmt POLB01.str1 -ele $EnodeList  -time   material 1 strain"
eval "recorder Element $outfmt POLB01.str2 -ele $EnodeList  -time   material 2 strain"
eval "recorder Element $outfmt POLB01.str3 -ele $EnodeList  -time   material 3 strain"
eval "recorder Element $outfmt POLB01.str4 -ele $EnodeList  -time   material 4 strain"
eval "recorder Element $outfmt POLB01.str5 -ele $EnodeList  -time   material 5 strain"
eval "recorder Element $outfmt POLB01.str6 -ele $EnodeList  -time   material 6 strain"
eval "recorder Element $outfmt POLB01.str7 -ele $EnodeList  -time   material 7 strain"
eval "recorder Element $outfmt POLB01.str8 -ele $EnodeList  -time   material 8 strain"
eval "recorder Element $outfmt POLB01.histsts1 -ele $HistOutEleList  -time   material 1 stress"
eval "recorder Element $outfmt POLB01.histstr1 -ele $HistOutEleList  -time   material 1 strain"
eval "recorder Element $outfmt POLB01.pileforce -time  -ele $pileEles globalForce"
eval "recorder Node $outfmt POLB01.piledisp -time  -node $pileNodes -dof 1 2 3 4 5 6 disp"
eval "recorder Node $outfmt POLB01.pileacc -time  -node $pileNodes -dof 1 2 3 accel"
eval "recorder Element $outfmt POLB01.linkforce -time  -ele $linkEles localForce"
eval "recorder Node $outfmt POLB01.linkdisp -time  -node $linkNodes -dof 1 2 3 disp"

# analysis options
numberer $numberer
eval "system $solver"
test NormDispIncr 1.000000e-004 100 1
constraints Penalty 1.000000e+018 1.000000e+018
eval "algorithm $algorithm"
#integrator LoadControl 1 1 1 1
#analysis Static
rayleigh $am 0.0 $ak 0.0
integrator Newmark $gamma  [expr pow($gamma+0.5, 2)/4]
analysis VariableTransient 

# clock format [clock seconds] -format "%T"
set startT [clock seconds]

set fileId [open $tracefnameTot "w"]
puts $fileId "4 83.74"
close $fileId

set fileId [open $tracefnameCurr "w"]
puts $fileId "0"
close $fileId

        analyze $numSteps $compdT [expr $compdT/100] $compdT  15

set endT [clock seconds]
set ElapsedTime [expr $endT-$startT]
set ElapsedHours [expr int($ElapsedTime/3600.)]
set ElapsedMins [expr int($ElapsedTime/60.-$ElapsedHours*60.)]
set ElapsedSecs [expr int($ElapsedTime-$ElapsedHours*3600-$ElapsedMins*60.)]
puts "Execution time: $ElapsedHours hours and $ElapsedMins minutes and $ElapsedSecs seconds."
wipe; #need wipe to finish writing buffer to files
