#
#  _____ _______       _____                  _____                  _____      _             __               
# |  __ (_)  _  \  _  |  _  |                /  ___|                |_   _|    | |           / _|              
# | |  \/_| | | |_| |_| | | |_ __   ___ _ __ \ `--.  ___  ___  ___    | | _ __ | |_ ___ _ __| |_ __ _  ___ ___ 
# | | __| | | | |_   _| | | | '_ \ / _ \ '_ \ `--. \/ _ \/ _ \/ __|   | || '_ \| __/ _ \ '__|  _/ _` |/ __/ _ \
# | |_\ \ | |/ /  |_| \ \_/ / |_) |  __/ | | /\__/ /  __/  __/\__ \  _| || | | | ||  __/ |  | || (_| | (_|  __/
#  \____/_|___/        \___/| .__/ \___|_| |_\____/ \___|\___||___/  \___/_| |_|\__\___|_|  |_| \__,_|\___\___|
#                           | |                                                                                
#                           |_|                                                                                
#
# GiD + OpenSees Interface - An Integrated FEA Platform
# Copyright (C) 2016-2017
#
# Lab of R/C and Masonry Structures
# School of Civil Engineering, AUTh
#  
# Development team
#
# T. Kartalis-Kaounis, Civil Engineer AUTh
# V. Protopapadakis, Civil Engineer AUTh
# T. Papadopoulos, Civil Engineer AUTh
# 
# Project coordinator
#
# V.K. Papanikolaou, Assistant Professor AUTh
#
# This program is free software: you can redistribute it and/or modify
# it under the terms of the GNU General Public License as published by
# the Free Software Foundation, either version 3 of the License, or
# (at your option) any later version.
#
# This program is distributed in the hope that it will be useful,
# but WITHOUT ANY WARRANTY; without even the implied warranty of
# MERCHANTABILITY or FITNESS FOR A PARTICULAR PURPOSE.  See the
# GNU General Public License for more details.
#
# You should have received a copy of the GNU General Public License
# along with this program.  If not, see <http://www.gnu.org/licenses/>.

# --------------------------------------------------------------------------------------------------------------
#
# OPENSEES MODEL DATA FILE (Three dimensional / Three degrees of freedom)
#
# --------------------------------------------------------------------------------------------------------------

# Modeling environment (ndm = model dimensions, ndf = global degrees of freedom)

model BasicBuilder -ndm 3 -ndf 3

# --------------------------------------------------------------------------------------------------------------
# N O D E S
# --------------------------------------------------------------------------------------------------------------

# node $NodeTag $XCoord $Ycoord %Zcoord

node      1   -5.000   21.000   -5.000
node      2   -2.500   21.000   -5.000
node      3   -5.000   21.000   -2.500
node      4   -5.000   18.500   -5.000
node      5   -5.000   18.500   -2.500
node      6   -2.500   21.000   -2.500
node      7   -2.500   18.500   -5.000
node      8   -2.500   18.500   -2.500
node      9   -5.000   16.000   -5.000
node     10    0.000   21.000   -5.000
node     11   -5.000   21.000    0.000
node     12   -5.000   16.000   -2.500
node     13    0.000   18.500   -5.000
node     14   -2.500   21.000    0.000
node     15   -2.500   16.000   -5.000
node     16   -5.000   18.500    0.000
node     17    0.000   21.000   -2.500
node     18   -2.500   16.000   -2.500
node     19    0.000   18.500   -2.500
node     20   -2.500   18.500    0.000
# ... 732 like lines cut

# --------------------------------------------------------------------------------------------------------------
# R E S T R A I N T S
# --------------------------------------------------------------------------------------------------------------

# fix $NodeTag x-transl y-transl z-transl

fix      1   0   1   0
fix      2   0   1   0
fix      3   0   1   0
fix      4   1   0   0
fix      5   1   0   0
fix      6   0   1   0
fix      7   0   0   1
fix      9   1   0   0
fix     10   0   1   0
fix     11   0   1   0
fix     12   1   0   0
fix     13   0   0   1
fix     14   0   1   0
fix     15   0   0   1
fix     16   1   0   0
fix     17   0   1   0
fix     21   0   1   0
fix     22   1   0   0
fix     23   0   0   1
fix     24   1   0   0
# ... 164 like lines cut

# fix of unused DOFs for stdBrick nodes


# --------------------------------------------------------------------------------------------------------------
# S T A N D A R D   B R I C K   E L E M E N T S
# --------------------------------------------------------------------------------------------------------------

# nDMaterial Definition

nDMaterial ElasticIsotropic 32 3.1e+07 0.2
nDMaterial ElasticIsotropic 33 170000 0.25

# stdBrick element definition: element stdBrick $eleTag $node1 $node2 $node3 $node4 $node5 $node6 $node7 $node8 $matTag <$b1 $b2 $b3>

element stdBrick      1    536    527    519    524    556    548    541    545    32    0.000    0.000    0.000
element stdBrick      2    544    540    527    536    568    563    548    556    32    0.000    0.000    0.000
element stdBrick      3    560    551    540    544    576    572    563    568    32    0.000    0.000    0.000
element stdBrick      4    570    566    551    560    589    583    572    576    32    0.000    0.000    0.000
element stdBrick      5    582    577    566    570    602    596    583    589    32    0.000    0.000    0.000
element stdBrick      6    586    580    577    582    606    600    596    602    32    0.000    0.000    0.000
element stdBrick      7    644    632    621    633    665    652    642    656    32    0.000    0.000    0.000
element stdBrick      8    655    641    632    644    680    662    652    665    32    0.000    0.000    0.000
element stdBrick      9    670    654    641    655    689    679    662    680    32    0.000    0.000    0.000
element stdBrick     10    683    671    654    670    698    690    679    689    32    0.000    0.000    0.000
element stdBrick     11    694    684    671    683    702    699    690    698    32    0.000    0.000    0.000
element stdBrick     12    697    688    684    694    703    701    699    702    32    0.000    0.000    0.000
element stdBrick     13    595    613    606    586    592    609    602    582    32    0.000    0.000    0.000
element stdBrick     14    605    624    613    595    601    617    609    592    32    0.000    0.000    0.000
element stdBrick     15    614    635    624    605    610    631    617    601    32    0.000    0.000    0.000
element stdBrick     16    627    649    635    614    622    643    631    610    32    0.000    0.000    0.000
element stdBrick     17    639    661    649    627    634    658    643    622    32    0.000    0.000    0.000
element stdBrick     18    657    681    661    639    651    677    658    634    32    0.000    0.000    0.000
element stdBrick     19    676    693    681    657    669    687    677    651    32    0.000    0.000    0.000
element stdBrick     20    688    701    693    676    684    699    687    669    32    0.000    0.000    0.000
# ... 270 like lines cut

# --------------------------------------------------------------------------------------------------------------
# R E C O R D E R S
# --------------------------------------------------------------------------------------------------------------

recorder Element -file stdBrick_force.out -time -eleRange 1 290 forces
recorder Element -file stdBrick_stress.out -time -eleRange 1 290 stresses
recorder Element -file stdBrick_strain.out -time -eleRange 1 290 strains
recorder Node -file Node_displacements.out -time -nodeRange 1 752 -dof 1 2 3 disp
recorder Node -file Node_reactions.out -time -nodeRange 1 752 -dof 1 2 3 reaction

logFile log.txt

# --------------------------------------------------------------------------------------------------------------

set time_start [clock seconds]
puts "\nAnalysis started  : [clock format $time_start -format %H:%M:%S]"
puts ""

# --------------------------------------------------------------------------------------------------------------
#
# I N T E R V A L   1
#
# --------------------------------------------------------------------------------------------------------------

puts "Interval 1"
puts ""

# Loads

pattern Plain 100 Linear {
}

# Analysis options

system BandGeneral
numberer RCM
constraints Transformation
integrator LoadControl 1 
analysis Static
analyze 1

loadConst -time 0.0

# --------------------------------------------------------------------------------------------------------------

set time_end [clock seconds]
set analysisTime [expr $time_end-$time_start]
puts "Analysis finished : [clock format $time_end -format %H:%M:%S]"
puts "Analysis time     : $analysisTime seconds"
puts "\nAnalysis finished."

# --------------------------------------------------------------------------------------------------------------
#
# M E T A D A T A
#
# --------------------------------------------------------------------------------------------------------------

# Number of nodes
# 752

# Elements 1D

# 0

# Elements 2D
# 0

# Elements 3D
# 290

# stdBrick
# 290
# 1 2 3 4 5 6 7 8 9 10 11 12 13 14 15 16 17 18 19 20 21 22 23 24 25 26 27 28 29 30 31 32 33 34 35 36 37 38 39 40 41 42 43 44 45 46 47 48 49 50 51 52 53 54 55 56 57 58 59 60 61 62 63 64 65 66 67 68 69 70 71 72 73 74 75 76 77 78 79 80 81 82 83 84 85 86 87 88 89 90 91 92 93 94 95 96 97 98 99 100 101 102 103 104 105 106 107 108 109 110 111 112 113 114 115 116 117 118 119 120 121 122 123 124 125 126 12
